Circuit: * V:\x_Cloud\UvA\Technology Centre - Documenten\General\Projects\IOP_Schreck_LaserProtection\LTspice\FetDirectGate.asc

WARNING: Less than two connections to node +6V.  This node is used by V1.
WARNING: Less than two connections to node -6V.  This node is used by V2.
Direct Newton iteration for .op point succeeded.

Date: Wed Nov 15 16:27:22 2023
Total elapsed time: 0.025 seconds.

tnom = 27
temp = 27
method = modified trap
totiter = 2121
traniter = 2088
tranpoints = 1045
accept = 1045
rejected = 0
matrix size = 15
fillins = 1
solver = Normal
Matrix Compiler1: 524 bytes object code size  0.1/0.1/[0.1]
Matrix Compiler2: off  [0.1]/0.1/0.1

