Circuit: * V:\x_Cloud\UvA\Technology Centre - Documenten\General\Projects\IOP_Schreck_LaserProtection\LTspice\FetToGnd.asc

Limiting rise time of source i1 to 0.09
Limiting fall time of source i1 to 0.09
WARNING: Less than two connections to node +6V.  This node is used by V1.
WARNING: Less than two connections to node -6V.  This node is used by V2.
Direct Newton iteration for .op point succeeded.

Date: Wed Nov 15 15:59:53 2023
Total elapsed time: 0.029 seconds.

tnom = 27
temp = 27
method = modified trap
totiter = 2163
traniter = 2153
tranpoints = 1067
accept = 1061
rejected = 6
matrix size = 13
fillins = 1
solver = Normal
Matrix Compiler1:      28 opcodes  0.1/[0.1]/0.1
Matrix Compiler2: 783 bytes object code size  0.1/0.1/[0.1]

