Circuit: * V:\x_Cloud\UvA\Technology Centre - Documenten\General\Projects\IOP_Schreck_LaserProtection\LTspice\ModulationCathodeGrounded.asc

Instance "m:u1:6": Length shorter than recommended for a level 2 MOSFET.
Instance "m:u1:5": Length shorter than recommended for a level 2 MOSFET.
Instance "m:u3:6": Length shorter than recommended for a level 2 MOSFET.
Instance "m:u3:5": Length shorter than recommended for a level 2 MOSFET.
Direct Newton iteration failed to find .op point.  (Use ".option noopiter" to skip.)
Starting Gmin stepping
Gmin = 10
Gmin = 1.07374
vernier = 0.5
vernier = 0.25
vernier = 0.125
Gmin = 1.02385
vernier = 0.0625
vernier = 0.03125
vernier = 0.015625
Gmin = 1.01955
vernier = 0.0078125
vernier = 0.00390625
Gmin = 1.01162
vernier = 0.00520833
vernier = 0.00260417
vernier = 0.00130208
Gmin = 1.00801
vernier = 0.00173611
vernier = 0.000868055
Gmin = 1.00593
vernier = 0.00115741
vernier = 0.000578703
vernier = 0.000771604
Gmin = 1.00452
vernier = 0.000578703
vernier = 0.000434027
Gmin = 1.00373
vernier = 0.000578703
vernier = 0.000434027
Gmin = 0
Gmin stepping failed

Starting source stepping with srcstepmethod=0
Source Step = 3.0303%
vernier = 0.25
Source Step = 7.57576%
Source Step = 15.1515%
Source Step = 22.7273%
Source Step = 30.303%
Source Step = 37.8788%
vernier = 0.375
Source Step = 48.8636%
Source Step = 60.2273%
Source Step = 71.5909%
Source Step = 82.9545%
Source Step = 94.3182%
vernier = 0.5625
Source stepping succeeded in finding the operating point.


Date: Wed Nov 15 16:53:38 2023
Total elapsed time: 0.428 seconds.

tnom = 27
temp = 27
method = modified trap
totiter = 8048
traniter = 2180
tranpoints = 1049
accept = 1049
rejected = 0
matrix size = 85
fillins = 72
solver = Normal
Matrix Compiler1: 7.04 KB object code size  1.3/0.7/[0.3]
Matrix Compiler2: 8.66 KB object code size  0.9/1.0/[0.4]

