Circuit: * V:\x_Cloud\UvA\Technology Centre - Documenten\General\Projects\IOP_Schreck_LaserProtection\LTspice\ModulationCathodeGrounded_Sinus.asc

Instance "m:u1:6": Length shorter than recommended for a level 2 MOSFET.
Instance "m:u1:5": Length shorter than recommended for a level 2 MOSFET.
Instance "m:u3:6": Length shorter than recommended for a level 2 MOSFET.
Instance "m:u3:5": Length shorter than recommended for a level 2 MOSFET.
Direct Newton iteration for .op point succeeded.

Date: Tue Nov 14 12:09:26 2023
Total elapsed time: 0.097 seconds.

tnom = 27
temp = 27
method = modified trap
totiter = 2112
traniter = 2090
tranpoints = 1046
accept = 1046
rejected = 0
matrix size = 85
fillins = 50
solver = Normal
Matrix Compiler1: 6.58 KB object code size  1.0/0.5/[0.2]
Matrix Compiler2: 8.30 KB object code size  0.6/0.8/[0.5]

